Circuit: * C:\Users\rhett\OneDrive\Documents\Taser V2\Draft1.asc

Direct Newton iteration for .op point succeeded.

Date: Fri Aug 30 23:01:35 2024
Total elapsed time: 0.044 seconds.

tnom = 27
temp = 27
method = trap
totiter = 4
traniter = 0
tranpoints = 0
accept = 0
rejected = 0
matrix size = 10
fillins = 1
solver = Normal
Matrix Compiler1:      25 opcodes
Matrix Compiler2: 802 bytes object code size
